<?xml version="1.0" encoding="UTF-8"?>

<net version="0.27" xmlns:xsi="http://www.w3.org/2001/XMLSchema-instance" xsi:noNamespaceSchemaLocation="http://sumo.dlr.de/xsd/net_file.xsd">

    <location netOffset="0.00,0.00" convBoundary="-58.70,81.58,102.68,82.79" origBoundary="-10000000000.00,-10000000000.00,10000000000.00,10000000000.00" projParameter="!"/>

    <edge id=":gneJ1_0" function="internal">
        <lane id=":gneJ1_0_0" index="0" speed="13.89" length="16.05" width="10.00" shape="7.98,80.51 11.85,80.11 15.87,79.16 19.89,78.18 23.76,77.74"/>
    </edge>

    <edge id="gneE0" from="gneJ0" to="gneJ1" priority="1">
        <lane id="gneE0_0" index="0" speed="13.89" length="66.66" width="4.00" shape="-58.67,79.53 7.98,80.51"/>
    </edge>
    <edge id="gneE1" from="gneJ1" to="gneJ2" priority="1">
        <lane id="gneE1_0" index="0" speed="13.89" length="78.92" width="10.00" shape="23.76,77.74 102.68,77.70"/>
    </edge>

    <junction id="gneJ0" type="dead_end" x="-58.70" y="81.58" incLanes="" intLanes="" shape="-58.70,81.53 -58.64,77.53"/>
    <junction id="gneJ1" type="priority" x="23.33" y="82.79" incLanes="gneE0_0" intLanes=":gneJ1_0_0" shape="23.81,82.69 23.70,72.64 10.80,77.58 8.12,78.21 7.88,82.26 10.80,83.05" customShape="1">
        <request index="0" response="0" foes="0" cont="0"/>
    </junction>
    <junction id="gneJ2" type="dead_end" x="102.68" y="82.75" incLanes="gneE1_0" intLanes="" shape="102.67,72.70 102.68,82.70"/>

    <connection from="gneE0" to="gneE1" fromLane="0" toLane="0" via=":gneJ1_0_0" dir="s" state="M"/>

    <connection from=":gneJ1_0" to="gneE1" fromLane="0" toLane="0" dir="s" state="M"/>

</net>
